variable      seednum equal  round(random(1,100000000,12345))

#-------initialize the model---------
units        lj
boundary     p p p
atom_style   atomic
dimension    2

lattice      sq2 0.783
Lattice spacing in x,y,z = 1.59821 1.59821 1.59821
region       box  block 0 50 0 50 -0.25 0.25
create_box   2 box
Created orthogonal box = (0 0 -0.399553) to (79.9106 79.9106 0.399553)
create_atoms 1 box basis 1 1 basis 2 2
Created 5000 atoms

#-------interactions-------
mass   *   1.0
pair_style  lj/powerlaw 1.0
pair_coeff  1 1 1.0 1.0 2.0 1.0
pair_coeff  2 2 1.0 1.4 2.0 1.4
pair_coeff  1 2 1.0 1.2 2.0 1.2
#--------interaction over-----------

#----run------
timestep    0.002
variable    relaxstep  equal  100*100/dt
variable    dumpstep   equal  5000000/200

neighbor     0.3 bin
neigh_modify every 1 delay 0 check yes
thermo       1000
thermo_style custom step temp press vol pe ke enthalpy density

variable  Thigh  equal  1.0
velocity  all  create  1 86995310 dist gaussian units box
velocity  all  zero    linear

fix  2dtype  all enforce2d

fix   1  all nvt temp 1 1 0.2
run   500000
  update every 1 steps, delay 0 steps, check yes
Step Temp Press Volume PotEng KinEng Enthalpy Density
0            1   0.82579302     6385.696 0.0033924956       0.9998    2.0578451        0.783
Averages over the last 251 of 501 rows, steps 250000 to 500000:
Temp Press Volume PotEng KinEng Enthalpy Density
0.999972 0.891077 6385.7 0.126759 0.999772 2.26456 0.783
Loop time of 176.532 on 2 procs for 500000 steps with 5000 atoms

unfix 1

write_dump all atom initial.atom

fix   1  all nvt temp $T $T 0.2
fix   1  all nvt temp 0.002 $T 0.2
fix   1  all nvt temp 0.002 0.002 0.2
run   5000000
Step Temp Press Volume PotEng KinEng Enthalpy Density
500000    1.0153037   0.90355961     6385.696   0.12744456    1.0151007    2.2965166        0.783
Averages over the last 2501 of 5001 rows, steps 3000000 to 5500000:
Temp Press Volume PotEng KinEng Enthalpy Density
0.00199946 0.0343933 6385.7 0.00340852 0.00199906 0.0493326 0.783
Loop time of 1627.07 on 2 procs for 5000000 steps with 5000 atoms

unfix 1

write_restart  restart.T$T.n$b
write_restart  restart.T0.002.n$b
write_restart  restart.T0.002.n1
write_dump  all atom dump.restart.T$T.n$b.atom
write_dump  all atom dump.restart.T0.002.n$b.atom
write_dump  all atom dump.restart.T0.002.n1.atom

#----production----
reset_timestep 0
variable  logout  equal  logfreq2(10,30,10)
fix   1  all nvt  temp $T $T 0.2
fix   1  all nvt  temp 0.002 $T 0.2
fix   1  all nvt  temp 0.002 0.002 0.2
dump  1  all atom 25000 dump.log.T$T.n$b.atom
dump  1  all atom 25000 dump.log.T0.002.n$b.atom
dump  1  all atom 25000 dump.log.T0.002.n1.atom
dump_modify 1 every v_logout first yes
dump  2  all atom 25000 dump.T$T.n$b.atom
dump  2  all atom 25000 dump.T0.002.n$b.atom
dump  2  all atom 25000 dump.T0.002.n1.atom
run   5000000
Step Temp Press Volume PotEng KinEng Enthalpy Density
0 0.0019933221  0.034564605     6385.696 0.0034352144 0.0019929235  0.049571951        0.783
Averages over the last 2501 of 5001 rows, steps 2500000 to 5000000:
Temp Press Volume PotEng KinEng Enthalpy Density
0.00200008 0.0344217 6385.7 0.00341404 0.00199968 0.049375 0.783
Loop time of 1623.71 on 2 procs for 5000000 steps with 5000 atoms

unfix  1
undump 1
undump 2

clear
next n
jump harmonic.in
